cases/32 VERAO 2027-2028 MED.PWF
TITU
ONS * PARPEL 2023-2027 * VERÃO 2027/2028 MÉDIA *                                
DOPC IMPR
(Op) E (Op) E (Op) E (Op) E (Op) E (Op) E (Op) E (Op) E (Op) E (Op) E
QLIM L VLIM L CREM L CTAP L STEP L NEWT L RCVG L RMON L FILE L SUBS L
CONT L NOVO L CELO L MFCT L AREG L STPO L VLCR L CPHS L IANG L
99999
DCTE
(Mn) ( Val) (Mn) ( Val) (Mn) ( Val) (Mn) ( Val) (Mn) ( Val) (Mn) ( Val) 
BASE   100. DASE   100. TEPA    .01 EXST    .04 TETP     5. TBPA     5.
TLPP     1. TEPR    .01 QLST    .04 TLPR    .01 TLPQ     2. TSBZ    .01
TSBA     5. ASTP    .05 VSTP     5. TLVC    .05 TLTC    .01 TSFR  .1E-7
ZMAX   500. TLPV     .5 VDVM   200. VDVN    40. TUDC   .001 TADC    .01
PGER    30. TPST    .02 VFLD    70. ZMIN   .001 HIST    470 LFIT     10
ACIT    100 LFCV      1 DCIT     10 VSIT     10 LPIT     50 LFLP     10
PDIT     10 LCRT    200 LPRT     60 CSTP     5. ASDC     1.
ICIT     50 DMAX      5 FDIV     2. ICMN    .05 VART     5. TSTP     32
ICMV     .5 APAS    90. CPAR    70. VAVT     2. VAVF     5. VMVF    15.
VPVT     2. VPVF     5. VPMF    10. VSVF    20. VINF     1. VSUP     1.
TLSI     0. NDIR    20. STTR     5. TRPT   100. STIR     1. BFPO     1.
LFPO     .1 TLMT     0. TLMF     0. TLMG     0. PARS    10.            
99999
DBAR
(Num)OETGb(   nome   )Gl( V)( A)( Pg)( Qg)( Qn)( Qm)(Bc  )( Pl)( Ql)( Sh)Are(Vf)M(1)(2)(3)(4)(5)(6)(7)(8)(9)(10
   10 L1 VANGRA1UNE001 51003-20. 650.121.3-211. 414.        32.15.49     2511000                                   
   11 L1 VANGRA2UNE001 5 984-20.1350. 291.-600. 600.        65. 31.5     2511000                                   
   12 L1 VLCBARRUHE005 51005-5.3 828.-56.4-450. 350.                     2041000                                   
   13 L1 TLCBARRSIN001 5 999-10.   0.-30.1-140.  70.                     2041000                                   
   14 L1 VFUNIL-UHE003 5 998-29. 175.-12.6-150. 150.       1.14   0.     2551000                                   
   16 L1 VFURNASUHE007 51004-11. 961.-66.3-350. 350.                     3521000                                   
   17 L1 TFURNASSIN001 5 996-17.   0.-26.6-160.  80.                     3521000                                   
   18 L1 VITUMBIUHE005 5 99415.81801.-72.1-455. 500.                     3511000                                   
   19 L1 TITUMBISIN001 510057.51   0.-12.5 -91. 100.                     3511000                                   
   20 L1 VMARIMBUHE007 51025.9461176.-140.-560. 560.                     3511000                                   
   21 L1 VMANSO-UHE004 5 98130.2 194.-9.97 -80.  84.                     4721020                                   
   22 L1 VM.MORAUHE005 51010-5.9 246.-10.3-100. 105.        1.8   0.     3521000                                   
   23 L1 TCBRAV-SIN000 5100431.3   0.   0.   0.   0.                     5131000                                   
   24 L1 VM.MORBUHE004 5 981-9.3 142.34.61 -24.  62.        1.2   0.     2081000                                   
   27 L  CCPAUL2-SP500 31068-29.                                         2021000                                   
   28 L1 VPCOLOMUHE004 51024-22. 259.36.73-100. 100.       1.55   0.     2081000                                   
   30 L1 VSCRU19UTE000 51001-37.   0.   0.   0.   0.                     2541000                                   
   31 L1 VSCRU13UTE000 5 958-37.   0.   0.   0.   0.                     2541000                                   
   32 L1 VSCRU16UTE000 51001-37.   0.   0.   0.   0.                     2541000                                   
   35 L1 VCORUMBUHE003 5 98715.8 301.-12.8-180. 180.                     5121000                                   
   36 L1 VS.MESAUHE003 5 98427.51000.58.32-480. 480.                     5111000                                   
   37 L1 TS.MESASIN000 5 98322.6   0.   0.   0.   0.                     5111000                                   
   38 L1 NGRAJA2SIN001 51006-34.   0.43.38-120. 200.                     2511000                                   
   41 L1 TVITOR2SIN001 51007-27.   0.1.169 -30.  60.                     3021000                                   
   44 L1 NGRAJA1SIN001 5 999-42.   0.88.48-120. 200.                     2511000                                   
   46 L 08CAMPO-CER015 61023-32.                                         25210002                                  
   47 D1 TVITORISIN001 51007-35.   0..8508 -30.  60.                     3021000                                   
   48 L1 QIBIUNASIN004 5 974-44.   0.-645.-720.1200.    86               2041000                                   
   50 L1 QTPRETOSIN001 51000-45.   0.53.65-180. 300.                     2011000                                   
   52 L  EP.ACU--RJ345 51017-32.                                         2521000                                   
   53 L1 QGNAIG-UTE000 51017-32.   0.   0.   0.   0.                     2521000                                   
   54 L1 QGNAIV-UTE000 51017-32.   0.   0.   0.   0.                     2521000                                   
   56 L  IIVAIP3-PR069 5 955-35.                                         2011000                                   
   57 L  IIVAIP2-PR069 5 911-35.                                         2011000                                   
   58 L  UIVAIP2-PR000 61029-35.                                         20110001                                  
   59 L  UIVAIP3-PR000 61013-35.                                         20110001                                  
   60 L  AF.IGUA-PR765 1 992-24.                                         2011000                                   
   61 L  CFZ-500-PR500 31033-22.                                         1011000                                   
   62 L  AIV-FZ1CAP765 11036-38.                                         20110002                                  
   63 L  AIV-FZ2CAP765 11035-38.                                         20110002                                  
   64 L  AIV-FZ3CAP765 11033-38.                                         20110342                                  
   65 L  AIVAIPO-PR765 11031-33.                                         2011000                                   
   66 L  BIVAIPA-PR525 21030-35.                                         1011000                                   
   67 L  IIVAIP1-PR069 5 911-35.                            .24   0.     2011000                                   
   68 L  UIVAIP1-PR000 61031-35.                                         20110001                                  
   69 L  AIV-IT1CAP765 11016-30.                                         20110002                                  
   70 L  AIV-IT2CAP765 11017-30.                                         20110002                                  
   71 L  AIV-IT3CAP765 11017-30.                                         20110002                                  
   72 L  AITABER-SP765 11036-36.                                         2011000                                   
   73 L  AIT-TP1CAP765 11005-32.                                         20110002                                  
   74 L  AIT-TP2CAP765 11005-32.                                         20110002                                  
   75 L  AIT-TP3CAP765 11003-32.                                         20110002                                  
   76 L  ATPRETO-SP765 1 986-39.                                         2011000                                   
   77 L  CTPRETO-SP500 31070-37.                                         2021000                                   
   78 L  ETPRETO-SP345 51022-45.                                         2041000                                   
   79 L  ITPRETO-SP069 6 989-37.                                         2011000                                   
   80 L  UTPRET3-SP000 6 989-37.                                         20110001                                  
   81 L  UTPRET4-SP000 6 986-45.                                         20110001                                  
   82 L  ETPRET2-SP345 51022-44.                                         2041000                                   
   84 L  GRESEN2-RJ138 51009-32.                                         2551000                                   
   85 L  CFOZ500-PR500 31038-8.6                            60.   0.     2411000                                   
   86 L  EIBIUNA-SP345 51035-44.                                         2041000                                   
   87 L  CRESEND-RJ500 31061-30.                                         2511015                                   
   90 L  EVIANA--ES345 51007-25.                                         3021000                                   
   91 L  NVIANT1-ES013 61003-28.                                         3021000                                   
   92 L  CSB-SM1CAP500 310486.09                                         51110002                                  
   93 L  CSB-SM2CAP500 310527.77                                         51110002                                  
   94 L  CSB-SM3CAP500 310567.19                                         51110002                                  
   95 L  NVIANT2-ES013 61003-28.                                         3021000                                   
   96 L  NVIANT3-ES013 61003-28.                                         3021000                                   
   99 L  CAS-AR1-SP500 31061-28.                                         20210002                                  
  100 L  CMARIMB-MG500 31043-4.8                                         3511000                                   
  101 L  CARARAQ-SP500 31057-18.                                         2021000                                   
  102 L  CP.CALD-MG500 31065-24.                                         3511000                                   
  103 L  CCAMPIN-SP500 31043-34.                                         2021000                                   
  104 L  CC.PAUL-SP500 31068-29.                                         2021000                                   
  105 L  CANGRA--RJ500 31063-27.                                         2511000                                   
  106 L  CADRIAN-RJ500 31047-31.                                         2511000                                   
  107 L  CGRAJAU-RJ500 31038-34.                                         2511000                                   
  108 L  CS.JOSE-RJ500 31039-33.                                         2511000                                   
  109 L  CBYPSAD-RJ500 31047-31.                                         2511000                                   
  110 L  UGR1T52-RJ000 6 972-42.                                         25110001                                  
  112 L  CBA-IB1-PR500 31080-44.                                         10110352                                  
  113 L  CBA-IB2-PR500 31080-44.                                         10110352                                  
  114 L  CBA-IT1-PR500 31080-44.                                         10110002                                  
  115 L  CBA-IT1CAP500 31051-53.                                         20210002                                  
  116 L  GIMBTAP-RJ138 51009-38.                                         2561000                                   
  117 L  CCAMPO2-RJ500 31062-21.                                         2511000                                   
  118 L  UBANDT4-GO000 6 972 2.5                                         51210001                                  
  119 L  NBANDT4-GO013 6 972 2.5                                         5121000                                   
  120 L  EP.CALD-MG345 5 994-29.                                         3521000                                   
  121 L  UPCAT51-MG000 61085-30.                                         35110001                                  
  122 L  CIBIUNA-SP500 31080-42.                                         2021000                                   
  123 L  ECAMPIN-SP345 5 992-38.                                         2041000                                   
  124 L  UCAMP51-SP000 6 989-39.                                         20210001                                  
  125 L  CIB-BA1CAP500 31016-39.                                         20210002                                  
  126 L  EGUARUL-SP345 51016-47.                                         2041000                                   
  127 L  EMO-RL1-SP345 51011-45.                                         20410002                                  
  128 L  EMO-RL2-SP345 51011-45.                                         20410152                                  
  129 L  EMOGI---SP345 51002-45.                                         2041000                                   
  130 L  CIB-BA2CAP500 31016-39.                                         20210002                                  
  131 L  EM.MORA-MG345 51020-12.                                         3521000                                   
  133 L  UADRT1A-RJ000 61019-37.                                         25210001                                  
  134 L  ELCBARR-SP345 51014-10.                                         2041000                                   
  135 L  UJACT1A-RJ000 6 976-40.                                         25210161                                  
  136 L  EFURNAS-MG345 51016-17.                                         3521000                                   
  137 L  UJACT2A-RJ000 6 976-40.                                         25210161                                  
  138 L  EITUTIN-MG345 51020-26.                                         3521000                                   
  139 L  UADRT51-RJ000 6 996-34.                                         25110601                                  
  140 L  EADRIAN-RJ345 51025-34.                                         2521000                                   
  141 L  UADRT53-RJ000 6 996-35.                                         25110001                                  
  142 L  UADRT55-RJ000 6 996-35.                                         25110601                                  
  143 L  UADRT2B-RJ000 61019-37.                                         25210301                                  
  144 L  EJACARE-RJ345 51005-37.                                         2521000                                   
  145 L  UADRT1B-RJ000 61019-37.                                         25210001                                  
  146 L  UADRT2A-RJ000 61019-37.                                         25210001                                  
  147 L  ECAMPOS-RJ345 51016-32.                                         2521000                                   
  148 L  UCAMPO1-RJ000 6 999-35.                                         25210001                                  
  149 L  EVITORI-ES345 51005-27.                                         3021000                                   
  150 L  UVITAT1-ES000 61004-30.                                         30210001                                  
  152 L  UVITAT2-ES000 61004-30.                                         30210001                                  
  153 L  UVITAT3-ES000 61004-30.                                         30210001                                  
  154 L  NVITAT2-ES013 61039-30.                                         3021000                                   
  155 L  NVITAT3-ES013 61038-30.                                         3021000                                   
  156 L  NVITAT4-ES013 61034-30.                                         3021000                                   
  158 L  UVITAT4-ES000 61004-30.                                         30210001                                  
  159 L  NJA-R30-RJ013 6 976-40.                                         2521016                                   
  160 L  NJB-R60-RJ013 6 975-40.                                         2521016                                   
  161 L  FMO-FCE-SP230 51017-46.                                         2051000                                   
  162 L  UCAMAT1-SP000 6 977-40.                                         20410001                                  
  163 L  NCAMPI1-SP013 6 962-40.                                         2041000                                   
  164 L  UPCAT02-MG000 6 997-33.                                         35210501                                  
  165 L  NP.CAL2-MG013 6 965-33.                                         3521050                                   
  166 L  UJACT1B-RJ000 6 975-40.                                         25210161                                  
  167 L  NJA-R60-RJ013 6 976-40.                                         2521016                                   
  169 L  GSJOSE2-RJ138 51020-38.                                         2541000                                   
  170 L  GP.CALD-MG138 51052-32.                                         3591000                                   
  171 L  GCAMPI1-SP138 51011-41.                           1.01   0.     2071000                                   
  172 L  GIMBARE-RJ138 51005-40.                                         2561000                                   
  173 L  GADRIAN-RJ138 51014-37.                                         2561000                                   
  174 L  GR.LEAO-RJ138 51028-37.                                         2581000                                   
  175 L  GCAMPOS-RJ138 51026-35.                            .25   0.     2591000                                   
  176 L  UCAMP54-SP000 6 986-39.                                         20210001                                  
  177 L  GVITOR1-ES138 51008-29.                                         3041000                                   
  178 L  GGRAJAU-RJ138 51005-41.                                         2541000                                   
  179 L  UGR2T54-RJ000 6 993-34.                                         25110001                                  
  180 L  GJACAR2-RJ138 51004-40.                                         2541000                                   
  181 L  GANGDEF-RJ138 51008-33.                                         2511037                                   
  182 L  GFUNIL--RJ138 51005-33.                                         2551000                                   
  183 L  GC.PAUL-SP138 51024-31.                                         2141000                                   
  184 L  GS.CRUZ-RJ138 51001-37.                                         2541000                                   
  185 L  GANGRA--RJ138 51010-28.                             3. 1.45     2551000                                   
  186 L  NCAMP54-SP013 6 986-39.                                         2021000                                   
  187 L  GM.MORA-MG138 51035-15.                                         3581000                                   
  189 L  UBGERT1-DF000 610053.12                                         56310001                                  
  190 L  GP.COL--MG138 51015-26.                                         2081000                                   
  192 L  NCAMPO1-RJ013 6 999-35.                                         2521000                                   
  194 L  NADRT55-RJ013 6 996-35.                                         2511080                                   
  195 L  NADRT53-RJ013 6 996-35.                                         2511000                                   
  196 L  NCAMP51-SP013 6 907-39.                                         2021000                                   
  197 L  NADRT51-RJ013 6 996-34.                                         2511080                                   
  198 L  NPCALAT-MG013 6 995-30.                                         3511000                                   
  199 L  NVITAT1-ES013 61038-30.                                         3021000                                   
  200 L  UUCAMP1-RJ000 61046-39.                                         2591000                                   
  201 L1 VRSIL-1UTE000 51046-39.   0.   0.   0.   0.       1.16   0.     2591000                                   
  202 L  UUCAMP2-RJ000 61046-39.                                         2591000                                   
  203 L  VRSIL-2UTE000 51046-39.                           1.16   0.     2591000                                   
  204 L  NADRT1B-RJ013 61019-37.                                         2521000                                   
  205 L  NADRT2A-RJ013 61019-37.                                         2521000                                   
  206 L  NADRT2B-RJ013 61019-37.                                         2521030                                   
  208 L  NBGERT1-DF013 610053.12                                         5631000                                   
  209 L  NADRT1A-RJ013 61019-37.                                         2521000                                   
  210 L  CITUMBI-MG500 310617.51                                         3511000                                   
  211 L  UCAMPO2-RJ000 6 999-35.                                         25210001                                  
  212 L  NCAMPO2-RJ013 6 999-35.                                         2521000                                   
  213 L  EMARIMB-MG345 51015-3.2                                         3521000                                   
  214 L  UMARIMB-MG000 61015-2.8                                         35110001                                  
  216 L  EP.COL--MG345 51012-1.5                                         3521000                                   
  217 L  EITUMBI-MG345 510147.16                                         3521000                                   
  218 L  EBANDEI-GO345 5 9874.86                                         5121000                                   
  219 L  EB.SUL--DF345 5 99911.1                                         5621000                                   
  220 L  ECORUMB-GO345 5102010.5                                         5121000                                   
  221 L  LB.GERA-DF034 510053.44                                         564 991                                   
  222 L  UBSULT6-DF000 610048.77                                         56210001                                  
  223 L  UBANDT1-GO000 6 9712.39                                         51210001                                  
  224 L  UBANDT2-GO000 6 9702.17                                         51210001                                  
  225 L  FITUMBI-MG230 51024 7.4                                         3531000                                   
  226 L  FBANDEI-GO230 5 9972.74                                         5131000                                   
  227 L  FB.GERA-DF230 510028.91                                         5631000                                   
  228 L  FB.SUL--DF230 51003 9.2                                         5631000                                   
  229 L  FB.ALTO-GO230 510085.44                                         5131000                                   
  230 L  FS.MESA-GO230 5101422.7                                         5131000                                   
  231 L  FR.VERD-GO230 510277.64                                         5131000                                   
  232 L  NBSULT6-DF013 610048.77                                         5621000                                   
  233 L  CSAMAMB-DF500 3103514.5                                         5611000                                   
  234 L  ESAMAMB-DF345 5100211.9                                         5621000                                   
  235 L  CS.MESA-GO500 3103222.6                                         5111000                                   
  236 L  GB.SUL--DF138 510267.41                            .81   0.     5641000                                   
  237 L  GSAMAMB-DF138 510069.45                                         5641000                                   
  238 L  GR.VERD-GO138 510095.91                            .13   0.     5171000                                   
...
99999
DLIN
(De )d O d(Pa )NcEP ( R% )( X% )(Mvar)(Tap)(Tmn)(Tmx)(Phs)(Bc  )(Cn)(Ce)Ns(Cq)(1)(2)(3)(4)(5)(6)(7)(8)(9)(10
   27        87 1     .051  .782  66.5                          18552337  2337                                
   27      1503 1     .052  .792  66.5                          18552337  2337                                
   27      3010 2     .189 3.158709.66                          24423464  3464                                
   27      3383 1     .014  .20530.353                          27282728  2728                                
   38       17954         3.0195         1.                     200.200.   75.                                
   44       11052             3.         1.                     200.200.  100.                                
   50        81 4          2.498         1.                     500.500.  225.                                
   52       147 1      .16 1.64627.714                          12751492  1492                                
   52       147 2      .16 1.64627.714                          12751492  1492                                
   52     44840 1           8.69         1.                     150.180.  150.                                
   52     44842 2           8.69         1.                     150.180.  150.                                
   53        52 1           2.97         1.                     99999999  370.                                
   54        52 1           2.18         1.                     99999999  550.                                
   56        59 3          3.385         1.                     550.550.  251.                                
   57        58 2          3.606         1.                     550.550.   73.                                
   60        62 1     .076  1.85 927.8                          36844173  3684                                
   60        63 2     .076  1.85 929.1                          36844173  3684                                
   60        64 3     .082 1.899954.57                          36844173  3684                                
   60     43810 2           .806      .9524                     16501815  1880                                
   60     43862 1           .743      .9524                     16501815  1880                                
   60     43899 3            .74      .9524                     16501815  1880                                
   60     43915 4           .746      .9524                     16501815  1880                                
   60     43921 5           .731      .9524                     16501980  2309                                
   61     43421 1    .11781.9883257.72                          30963622  3622                                
   61     43422 2    .11781.9883257.72                          30963622  3622                                
   61     43810 2          -.164         1.                     99999999  9999                                
   61     43862 1          -.121         1.                     99999999  9999                                
   61     43899 3          -.117         1.                     99999999  9999                                
   61     43915 4          -.123         1.                     99999999  9999                                
   61     43921 5          -.114         1.                     99999999  9999                                
   65        58 2           .823         1.                     16501650  115.                                
   65        59 3           .773         1.                     16501833  2598                                
   65        68 1           .843         1.                     16501815  1650                                
   66        68 1           -.17      1.005 .8381.053        99916501815321815                                
   67        68 1          3.649         1.                     550.550.  1650                                
   69        72 1     .064  1.53  760.                          41334174  4133                                
   72        70 2     .063  1.53 755.7                          41334174  3684                                
   72        71 3     .064  1.54  760.                          41334174  3684                                
   73        76 1     .072  1.75 877.5                          41334174  4133                                
   76        74 2     .072  1.75  873.                          41334174  3684                                
   76        75 3 T   .078  1.79 898.2                          41334174  3684                                
   76        80 3           .697         1.                     16501815   60.                                
   76        81 4          1.028         1.                     15001650  118.                                
   76     41512 5           .993         1.                     15001500  1500                                
   76     41514 6           .983         1.                     15001650  1500                                
   76     41516 7           .931         1.                     15001800  1500                                
   76     41518 1           .839         1.                     16501650  1650                                
   76     41520 2           .817         1.                     16501815  1650                                
   77        80 3           -.03      1.082  .88 1.16         771650181532150.                                
   77       104 1 T   .167  2.54 216.6                          18552337  1855                                
   77       598 1 T   .106 1.441 133.4                          18552252  1855                                
   77      3383 1     .114 1.712259.62                          27282728  2728                                
   77     41518 1          -.165      1.082  .88 1.16         7716501650  1650                                
   77     41520 2          -.162      1.082  .88 1.16         7716501815  1650                                
   78        81 4          -.107      1.036 .8591.115         781500165032103.                                
   78       449 1 T  .0742 .6448 11.34                          11841392  1392                                
   78       449 2 T  .0742 .6448 11.34                          11841392  1392                                
   78       464 3 T  .1089  .97317.073                          912.1103  912.                                
   78       471 1    .0922 .8014 14.08                          11841392  1184                                
   78       471 2    .0922 .8014 14.08                          11841392  1184                                
   78       474 1     .062  .85819.827                          12801613  1280                                
   78     41512 5          -.093      1.036 .8591.115         7815001500  1500                                
   78     41820 1     .001  .001                                99999999  9999                                
   78     41823 1     .001  .001                                99999999  9999                                
   79        80 3          3.545         1.                     550.550.  150.                                
   82       420 1     .126 1.19925.641                          912.1103  912.                                
   82       449 3 T    .06   .6312.845                          13501350  300.                                
   82       449 4 T    .06   .6312.845                          13501350  100.                                
   82       464 1 T  .1066 .9279 16.08                          912.1103  100.                                
   82       464 2 T  .1066 .9279 16.08                          912.1103  100.                                
   82     41514 6          -.092      1.053 .8591.115         8215001650  1500                                
   82     41516 7          -.058      1.053 .8591.115         8215001800  1500                                
   82     41821 1     .001  .001                                99999999  9999                                
   82     41822 1     .001  .001                                99999999  9999                                
   84      1780 1       .7  1.78  .454                          120.120.  120.                                
   84      1780 2       .7  1.78  .454                          120.120.  120.                                
   84     11797 1      .32  .815 .2079                          122.130.  122.                                
   84     21797 1      .32  .815 .2079                          122.130.  122.                                
   84     42417 1     .004-1.667         1.                     300.360.  300.                                
   85      1103 3 T  .0058.1006910.041                          27283377  3377                                
   85      1103 4 T .00564.09795 9.691                          27283377  3377                                
   86        48 1         .71475      1.013                     10501050  1050                                
   86        82 1     .187 2.602  60.1                          12801613  300.                                
   86       474 1      .16 2.25252.045                          12801613  1280                                
   86       488 1    .09481.4987 41.91                          20202390  2390                                
   86       488 2    .09481.4987 41.91                          20202390  2390                                
   86     41522 1           -.25       1.01 .8951.048       -122750.750.  750.                                
   86     41524 2          -.254       1.01 .8951.048       -122750.750.  750.                                
   86     41526 3           .236       1.01 .8951.048       -122750.900.  750.                                
   87      9605 1 T   .081 1.221 106.8                          18552337  1855                                
   87     42417 1     .121 4.833      1.033   .9  1.1        -84300.360.21300.                                
   87     42426 1          8.333         1.                     150.180.  150.                                
   87     42428 2         11.458         1.                     120.144.  144.                                
   90      2608 1          4.847      1.005                     225.270.   51.                                
   90      2618 2          4.861      1.005                     225.270.  150.                                
   90      2628 3           4.65      1.005                     225.270.  100.                                
   90      3032 1 T   .225 2.46841.546                          747.747.  853.                                
   90     42441 4          3.081      1.005                     400.480.  400.                                
   91      2608 1            9.7         1.                      75. 75.   75.                                
   95      2618 2          9.773         1.                      75. 75.   75.                                
   96      2628 3           9.83         1.                      75. 75.   75.                                
   99       101 1     .198 3.098317.55                          19061906  1906                                
   99       556 1     .001  .001       1.05                     99999999   50.                                
  100        20 1           .903         1.                     15201520  1520                                
  100       214 9          2.979      1.014  .95 1.05       -213560.717.32560.                                
  100       535 1 T   .153 2.356 203.8                          17321732  1732                                
  100      3110 1    .12531.8381160.42                          19922390  1992                                
  100      4598 1     .006  .097   7.4                          18552337  1855                                
  100      4598 2     .006  .086   7.2                          18552337  1855                                
  100      4598 3    .0064 .08247.1767                          19922390  1992                                
  101       102 1     .156  2.46 208.5                          18552337  1855                                
  101       103 1      .15  2.39 202.6                          18552337  1855                                
  101      4598 1 T   .179 2.762236.42                          18552337  1855                                
  101      4598 2 T   .178 2.748236.83                          18552337  1855                                
  102       12151          2.911         1.                     600.720.  720.                                
  102      1503 1     .129 1.993 167.7                          18552337  1855                                
  103       12451          2.946       1.05                     560.717.  560.                                
  103       17654         2.9116       1.05                     560.728.  560.                                
  103       609 1      .06  .946 76.26                          18552337  1855                                
  103      6609 1     .024  .368  31.7                          18552337   61.                                
  103      6609 2     .017  .26738.833                          24773464  2337                                
  104        27 1     .001  .001                                99999999  9999                                
  104       598 1     .075  1.15  98.9                          18552252  1855                                
  104       609 1     .148 2.347193.31                          18552337  1855                                
  104      9626 1     .098  1.68252.04                          24732598   72.                                
  104     4166457         4.7375       1.05                     250.262.  250.                                
  104     4166659         4.9492       1.05                     250.270.  250.                                
  105        10 1           1.97      1.075                     759.759.  759.                                
  105        11 1            .95        1.1                     14501450  1450                                
  105        27 1     .093 1.456122.54                          18552337  2337                                
  105      9601 1     .092 1.363115.34                          18552337  558.                                
  105      9608 1 T   .101 1.518127.82                          18552337  1855                                
  105     4240158          3.988       1.05                     400.400.  210.                                
  106       108 1     .019  .389  42.1                          25982598  2598                                
  106       109 1     .001  .001                                99999999   15.                                
  106       13951          1.962       1.05                     560.644.  2598                                
  106       14153          3.042       1.05                     560.672.  560.                                
  106       14255           2.93       1.05                     560.717.  560.                                
  107       109 1 T   .033  .67372.576                          25982598   83.                                
  107       11052          2.141       1.05                     600.720.   75.                                
  107       17954           2.15       1.05                     600.720.  150.                                
  107     4240756          2.142       1.05                     600.720.  600.                                
  107     4240858          2.114       1.05                     600.720.  600.                                
  108     4243111          2.327       1.05                     600.660.  600.                                
  108     4243212            2.3       1.05                     600.660.  600.                                
  108     4243313           2.27       1.05                     600.720.  600.                                
  108     4243414          2.288       1.05                     600.720.  600.                                
  109      9626 1     .012  .19329.698                          24732598   72.                                
  112       895 1     .001  .001       1.05                     12992252  2252                                
  113       895 2     .001  .001       1.05                     12992252  2252                                
  114       895 1     .001  .001       1.05                     99999999  9999                                
  115      6609 1     .263  4.25  659.                          26163715  2616                                
  116       172 1D     .13   .72  .207                          145.145.  145.                                
  116       173 1      .62  3.61 1.033                          153.193.  146.                                
  117      4353 1     .135 2.435361.21                          28023403  2802                                
  117      4353 2     .135 2.435361.21                          28023403  2802                                
  119       118 4         15.049         1.                      75. 75.   75.                                
  120       12151          -.522      .9222   .9  1.1        120600.720.  720.                                
  120       126 1       .6  5.95  92.8                          776.977.  853.                                
  120       126 2     .606  6.02  93.8                          776.977.  853.                                
  120       164 2          8.275       .957                     150.160.  150.                                
  120       697 1     .394  4.39 74.85                          853.1075  125.                                
  120     42000 1          7.754         1.                     150.160.  160.                                
  120     42002 3          8.027         1.                     150.161.  161.                                
  120     42004 4            7.2         1.                     150.150.  150.                                
  120     42006 5           4.54         1.                     225.270.  315.                                
  120     42008 6          4.556         1.                     225.270.  315.                                
  122      6609 1     .079 1.214 103.2                          18552337  1855                                
  122     41522 1         1.8016       1.05                     750.750.  750.                                
  122     41524 2         1.7995       1.05                     750.750.  750.                                
  122     41526 3         1.2804       1.05                     750.900.  750.                                
  123       120 1 T   .359 3.945  66.7                          853.1075  853.                                
  123       12451          -.528      1.006  .95 1.11        123560.717.17560.                                
  123       162 1          2.782         1.                     150.176.  166.                                
  123       17654          -.413      1.006  .95 1.11        123560.728.17560.                                
  123     41504 2          2.782         1.                     150.176.  166.                                
  123     41505 3         6.0166      1.004                     150.176.  166.                                
  123     41506 4         5.6033      1.004                     150.176.  166.                                
  123     41507 5           5.63      1.004                     150.176.  166.                                
  125       112 1     .308 3.958444.84                          12992252  2252                                
  126        86 1     .109 1.826  51.2                          17072150  218.                                
  126        86 2     .109 1.824  51.2                          17072150  269.                                
  126       123 1     .252 2.761  46.5                          853.1075  853.                                
  126       442 1     .116 1.13217.708                          776.977.  558.                                
  129       697 1      .18  2.03 34.67                          717.717.  125.                                
  129     41660 1          2.436         1.                     500.590.  500.                                
  129     41662 2          2.339         1.                     500.590.  500.                                
  130       113 2     .308 3.958444.84                          12992252  2252                                
  131        22 1          4.432         1.                     378.378.  378.                                
  131      3012 1     .038  .427 6.673                          853.1075  853.                                
  131     4202211          2.686         1.                     400.480.  400.                                
  131     4202413          2.526         1.                     400.480.  400.                                
  134        12 1          1.068       .999                     11361136  1136                                
  134        13 1           5.34       .999                     99999999  100.                                
  134       120 1      .56  6.16 105.3                          853.1075  853.                                
  134       120 2      .55  6.13 107.7                          853.1075  853.                                
  134      3012 1     .071  .75512.922                          853.1075  853.                                
  134      3012 2     .071  .75512.792                          853.1075  853.                                
  136        16 1          1.097         1.                     12801280  1280                                
  136        17 1           7.68         1.                     99999999  100.                                
...
99999
DCSC
(De ) O  (Pa )NcEPB      (Xmin)(Xmax)( Xv )C ( Vsp) (Ext)Nst(Cn)(Ce)(Cq)(1)(2)(3)(4)(5)(6)(7)(8)(9)(10
  235     7236 1          -.637 -.637 -.637X  -.637   235   173223381732
 7190     7197 2           -.85  -.85  -.85X   -.85  7190   216529222922
  299     3005 1          -.985 -.985 -.986X  -.986   299   160221636666
 3007     3006 1          -.985 -.985 -.986X  -.986  3007   16002163288.
 3007     3050 1         -.8847-.8847 -.856X  -.856  3007   207828062078
 6400     6509 3           -.72  -.72  -.72X   -.72  6400   19922685127.
 5436     5437 1         -1.908-1.908-1.908X -1.908  5436   155919921992
  114      115 1         -2.124-2.124-2.124X -2.124   114   193121241931
 6400     6507 4           -.72  -.72  -.72X   -.72  6400   199226851992
 5436     5435 3         -1.756-1.756-1.756X -1.756  5436   155919921992
 5580     6517 1         -1.096-1.096-1.096X -1.096  5580   19922685 85.
 8400     8403 1          -.832 -.832 -.832X  -.832  8400   159317532151
 5570     5577 2         -1.539-1.539-1.539X -1.539  5570   15591992686.
43952     5572 5          -1.88 -1.88 -1.88X  -1.88 43952   15152046150.
 6440     7306 1          -1.58 -1.58 -1.58X  -1.58  6440   164522211645
 6444     6442 1         -.8847-.8847-.8847X -.8847  6444   207828062078
43958     6510 1           -.88  -.88  -.88X   -.88 43958   19922685100.
 6489     6487 1          -5.53 -5.53 -5.53X  -5.53  6489   558.686.150.
 6700     6701 1           -.79  -.79  -.79X   -.79  6700   19922685107.
 6700     6702 1         -1.096-1.096-1.096X -1.096  6700   19922685 90.
43799     6934 3         -9.565-9.565-9.565X -9.565 43799   343.462.558.
 7100     7101 1          -.953 -.953 -.953X  -.953  7100   17322338467.
 7100     7102 1          -.953 -.953 -.953X  -.953  7100   19492631150.
 6360     6446 2 T         -.85  -.85  -.85X   -.85  6360   216529222922
43959     6511 2           -.72  -.72  -.72X   -.72 43959   19922685100.
43953     5574 6          -2.11 -2.11 -2.11X  -2.11 43953   15151559150.
 7100     7235 1          -.536 -.536 -.536X  -.536  7100   19492631100.
 7113     7238 1         -1.412-1.412-1.412X -1.412  7113   21652923 20.
 7200     7201 1           -.95  -.95  -.95X   -.95  7200   19492631150.
43800     4508 1          -6.51 -6.51 -6.51X  -6.51 43800   210.265. 30.
43955     6512 1          -1.37 -1.37 -1.37X  -1.37 43955   16891689 30.
 7300     7301 1           -.95  -.95  -.95X   -.95  7300   12991949 15.
 7300     7302 1           -.95  -.95  -.95X   -.95  7300   142919491732
43954     6513 1          -1.37 -1.37 -1.37X  -1.37 43954   168916891921
 8400     8404 2          -.832 -.832 -.832X  -.832  8400   159317532151
 5436     5576 4         -1.756-1.756-1.756X -1.756  5436   155921042104
 7591     5590 1         -1.588-1.588-1.588X -1.588  7591   142919491429
 8500     8406 2          -.832 -.832 -.832X  -.832  8500   159317532151
 8500     8405 1          -.832 -.832 -.832X  -.832  8500   159317532151
 8100     8101 1         -1.971-1.971-1.971X -1.971  8100   20182724 86.
 8100     8102 2         -1.971-1.971-1.971X -1.971  8100   20182724125.
 8100     8103 1          -.911 -.911 -.911X  -.911  8100   194021342619
 8100     8104 2          -.911 -.911 -.911X  -.911  8100   194021342619
 8200     8201 1           -.91  -.91  -.91X   -.91  8200   194021342619
 8200     8202 2           -.91  -.91  -.91X   -.91  8200   194021342619
 8200     8203 1         -1.273-1.273-1.273X -1.273  8200   173219052338
 8200     8204 2         -1.273-1.273-1.273X -1.273  8200   173219052338
 8300     8301 1         -1.273-1.273-1.273X -1.273  8300   173219052338
 8300     8302 2         -1.273-1.273-1.273X -1.273  8300   173219052338
 8300     8303 1         -1.219-1.219-1.219X -1.219  8300   164518102221
 8300     8304 2         -1.219-1.219-1.219X -1.219  8300   164518102221
 8400     8401 1         -1.219-1.219-1.219X -1.219  8400   164518102221
 8400     8402 2         -1.219-1.219-1.219X -1.219  8400   164518102221
 5436     5575 2         -1.908-1.908-1.908X -1.908  5436   155921042104
 6082     6444 5 T        -.598 -.598 -.598X  -.598  6082   173423412341
 6360     6080 5          -.598 -.598 -.598X  -.598  6360   173423412341
 6360     6443 2          -.554 -.554 -.554X  -.554  6360   173423412341
 6410     6430 1                         .8X     .8  6410   22522252 47.
 6444     6445 2          -.554 -.554 -.554X  -.554  6444   173423412341
 6700     6703 2           -.79  -.79  -.79X   -.79  6700   19922698139.
 7200     7203 2           -.95  -.95  -.95X   -.95  7200   19492631 54.
 7200     7209 3          -.952 -.952 -.952X  -.952  7200   19492631100.
 7300     7303 2           -.95  -.95  -.95X   -.95  7300   12991949 34.
 7300     7304 2           -.95  -.95  -.95X   -.95  7300   14291949 60.
 7300     7305 3          -.952 -.952 -.952X  -.952  7300   14441949 47.
   62       65 1 T         -.73  -.73  -.73X   -.73    62   999999999999
   63       65 2 T         -.73  -.73  -.73X   -.73    63   999999999999
   64       65 3 T         -.73  -.73  -.73X   -.73    64   999999999999
   65       69 1          -.778 -.778 -.778X  -.778    65   999999999999
   65       70 2          -.778 -.778 -.778X  -.778    65   999999999999
   65       71 3          -.778 -.778 -.778X  -.778    65   999999999999
   72       73 1          -.915 -.915 -.915X  -.915    72   368441733683
   72       74 2          -.915 -.915 -.915X  -.915    72   368441733683
   72       75 3          -.915 -.915 -.915X  -.915    72   368441733683
   78       82 1                       1.26X   1.26    78   450.450.598.
  122      125 1         -2.051-2.051-2.051X -2.051   122   19312251532.
  122      130 2         -2.051-2.051-2.051X -2.051   122   19312251532.
  127      129 1                        .76X    .76   127   956.956.912.
  128      129 2                        .76X    .76   128   956.956.912.
  225     4504 1          -5.93 -5.93 -5.93X  -5.93   225   210.265.150.
  225     4505 2          -9.53 -9.53 -9.53X  -9.53   225   438.478. 75.
  231     4507 1          -5.93 -5.93 -5.93X  -5.93   231   210.265. 93.
  231     4511 2         -11.27-11.27-11.27X -11.27   231   438.478.160.
  233       92 1          -1.86 -1.86 -1.86X  -1.86   233   173220782078
  233       93 2          -1.27 -1.27 -1.27X  -1.27   233   173220782078
  233       94 3          -1.27 -1.27 -1.27X  -1.27   233   173220782078
  235     7237 2          -.637 -.637 -.637X  -.637   235   173223381732
 4502     4540 2         -6.127-6.127-6.127X -6.127  4502   438.592.160.
 4502     4541 1         -5.959-5.959-5.959X -5.959  4502   233.294. 50.
 4510      231 1          -6.51 -6.51 -6.51X  -6.51  4510   210.265. 30.
 4522     4524 1          -5.73 -5.73 -5.73X  -5.73  4522   398.538.225.
 4531     4588 3         -1.675-1.675-1.675X -1.675  4531   246032042460
 4565     4496 3          -1.47 -1.47 -1.47X  -1.47  4565   170723042716
 4565     4497 2         -1.629-1.629-1.629X -1.629  4565   170723042716
 4565     4563 1         -1.628-1.628-1.628X -1.628  4565   170723042716
 4574     4565 3         -1.515-1.515-1.515X -1.515  4574   160721692716
 4578     4565 1         -2.064-2.064-2.064X -2.064  4578   160721692716
 4579     4565 2         -2.064-2.064-2.064X -2.064  4579   160721692716
 7100     7103 2           -.95  -.95  -.95X   -.95  7100   17322338 77.
 7100     7104 2           -.95  -.95  -.95X   -.95  7100   19492631 71.
 7100     7105 3          -.952 -.952 -.952X  -.952  7100   19492631100.
43672     4591 1         -1.279-1.279-1.279X -1.279 43672   166524601665
43673     4595 2         -1.356-1.356-1.356X -1.356 43673   251132042460
43797     6898 1          -9.88 -9.88 -9.88X  -9.88 43797   343.462.478.
43798     6899 2          -9.88 -9.88 -9.88X  -9.88 43798   343.462.494.
43956     6515 2          -1.14 -1.14 -1.14X  -1.14 43956   19922598200.
43957     6514 2          -1.14 -1.14 -1.14X  -1.14 43957   19922598400.
 7593     5590 2         -1.588-1.588-1.588X -1.588  7593   142919491429
99999
DBSH
(NFr) O (NTo) Nc C (Vmn (Vmx Bctrl (Qini) T A (Extr
   27      87  1 D 1000 1100    27        C      27 
(G  O E (U) UOp (Sht ) M
10        1   0  -136. S
FBAN
(NFr) O (NTo) Nc C (Vmn (Vmx Bctrl (Qini) T A (Extr
   27    3010  2 F 1000 1100    27  -240. C      27 
(G  O E (U) UOp (Sht ) M
10        1   1  -240. N
FBAN
(NFr) O (NTo) Nc C (Vmn (Vmx Bctrl (Qini) T A (Extr
 9605      27  1 D 1000 1100    27  -136. C      27 
(G  O E (U) UOp (Sht ) M
10        1   1  -136. S
FBAN
(NFr) O (NTo) Nc C (Vmn (Vmx Bctrl (Qini) T A (Extr
   56            D 0800 1200    56  -180. C         
(G  O E (U) UOp (Sht ) M
10        2   1  -180. S
FBAN
(NFr) O (NTo) Nc C (Vmn (Vmx Bctrl (Qini) T A (Extr
   57            D 0800 1200    57  -360. C         
(G  O E (U) UOp (Sht ) M
10        3   2  -180. S
FBAN
(NFr) O (NTo) Nc C (Vmn (Vmx Bctrl (Qini) T A (Extr
   60      62  1 F 0900 1046    60  -330. C      60 
(G  O E (U) UOp (Sht ) M
10        1   1  -330. N
FBAN
(NFr) O (NTo) Nc C (Vmn (Vmx Bctrl (Qini) T A (Extr
   60      63  2 F 0900 1046    60  -330. C      60 
(G  O E (U) UOp (Sht ) M
10        1   1  -330. N
FBAN
(NFr) O (NTo) Nc C (Vmn (Vmx Bctrl (Qini) T A (Extr
   60      64  3 F 0900 1046    60  -330. C      60 
(G  O E (U) UOp (Sht ) M
10        1   1  -330. N
FBAN
(NFr) O (NTo) Nc C (Vmn (Vmx Bctrl (Qini) T A (Extr
   60      62  1 F 0900 1046    62  -150. C      62 
(G  O E (U) UOp (Sht ) M
10        1   1  -150. N
FBAN
(NFr) O (NTo) Nc C (Vmn (Vmx Bctrl (Qini) T A (Extr
   60      63  2 F 0900 1046    63  -150. C      63 
(G  O E (U) UOp (Sht ) M
10        1   1  -150. N
FBAN
(NFr) O (NTo) Nc C (Vmn (Vmx Bctrl (Qini) T A (Extr
   60      64  3 F 0900 1046    64  -150. C      64 
(G  O E (U) UOp (Sht ) M
10        1   1  -150. N
FBAN
(NFr) O (NTo) Nc C (Vmn (Vmx Bctrl (Qini) T A (Extr
   65            D 0900 1046    65  -330. C         
(G  O E (U) UOp (Sht ) M
10        1   1  -330. S
FBAN
(NFr) O (NTo) Nc C (Vmn (Vmx Bctrl (Qini) T A (Extr
   67            D 0800 1200    67  -360. C         
(G  O E (U) UOp (Sht ) M
10        3   2  -180. S
FBAN
(NFr) O (NTo) Nc C (Vmn (Vmx Bctrl (Qini) T A (Extr
   69      72  1 F 0900 1046    69  -330. C      69 
(G  O E (U) UOp (Sht ) M
10        1   1  -330. N
FBAN
(NFr) O (NTo) Nc C (Vmn (Vmx Bctrl (Qini) T A (Extr
   72      70  2 F 0900 1046    70  -330. C      70 
(G  O E (U) UOp (Sht ) M
10        1   1  -330. N
FBAN
(NFr) O (NTo) Nc C (Vmn (Vmx Bctrl (Qini) T A (Extr
   72      71  3 F 0900 1046    71  -330. C      71 
(G  O E (U) UOp (Sht ) M
10        1   1  -330. N
FBAN
(NFr) O (NTo) Nc C (Vmn (Vmx Bctrl (Qini) T A (Extr
   72            D 0900 1046    72  -660. C         
(G  O E (U) UOp (Sht ) M
10        3   2  -330. S
FBAN
(NFr) O (NTo) Nc C (Vmn (Vmx Bctrl (Qini) T A (Extr
   69      72  1 F 0900 1046    72  -330. C      72 
(G  O E (U) UOp (Sht ) M
10        1   1  -330. N
FBAN
(NFr) O (NTo) Nc C (Vmn (Vmx Bctrl (Qini) T A (Extr
   72      70  2 F 0900 1046    72  -330. C      72 
(G  O E (U) UOp (Sht ) M
10        1   1  -330. N
FBAN
(NFr) O (NTo) Nc C (Vmn (Vmx Bctrl (Qini) T A (Extr
   72      71  3 F 0900 1046    72  -330. C      72 
(G  O E (U) UOp (Sht ) M
10        1   1  -330. N
FBAN
(NFr) O (NTo) Nc C (Vmn (Vmx Bctrl (Qini) T A (Extr
   73      76  1 F 0900 1046    76  -330. C      76 
(G  O E (U) UOp (Sht ) M
10        1   1  -330. N
FBAN
(NFr) O (NTo) Nc C (Vmn (Vmx Bctrl (Qini) T A (Extr
   76      74  2 F 0900 1046    76  -330. C      76 
(G  O E (U) UOp (Sht ) M
10        1   1  -330. N
FBAN
(NFr) O (NTo) Nc C (Vmn (Vmx Bctrl (Qini) T A (Extr
   76      75  3 F 0900 1046    76  -330. C      76 
(G  O E (U) UOp (Sht ) M
10        1   1  -330. N
FBAN
(NFr) O (NTo) Nc C (Vmn (Vmx Bctrl (Qini) T A (Extr
   79            D 0800 1200    79        C         
(G  O E (U) UOp (Sht ) M
10        2   0  -180. S
FBAN
(NFr) O (NTo) Nc C (Vmn (Vmx Bctrl (Qini) T A (Extr
   85            F 0950 1100    85  1540. C         
(G  O E (U) UOp (Sht ) M
10        3   3   280. S
20        2   2   350. S
FBAN
(NFr) O (NTo) Nc C (Vmn (Vmx Bctrl (Qini) T A (Extr
   86            F 0950 1050    86 1566.6 C         
(G  O E (U) UOp (Sht ) M
10        2   2    59. S
20        3   2  220.8 S
30        4   3   237. S
40        1   0  279.8 S
50        2   0   294. S
60        2   1   296. S
FBAN
(NFr) O (NTo) Nc C (Vmn (Vmx Bctrl (Qini) T A (Extr
   90            D 0950 1050    90   -60. C         
(G  O E (U) UOp (Sht ) M
10        1   1   -60. S
FBAN
(NFr) O (NTo) Nc C (Vmn (Vmx Bctrl (Qini) T A (Extr
  235      92  1 F 1000 1100    92   -73. C      92 
(G  O E (U) UOp (Sht ) M
10        1   1   -73. N
FBAN
(NFr) O (NTo) Nc C (Vmn (Vmx Bctrl (Qini) T A (Extr
  235      93  2 F 1000 1100    93  -136. C      93 
(G  O E (U) UOp (Sht ) M
10        1   1  -136. N
FBAN
(NFr) O (NTo) Nc C (Vmn (Vmx Bctrl (Qini) T A (Extr
  235      94  3 F 1000 1100    94  -136. C      94 
(G  O E (U) UOp (Sht ) M
10        1   1  -136. N
FBAN
(NFr) O (NTo) Nc C (Vmn (Vmx Bctrl (Qini) T A (Extr
   99     101  1 F 1000 1100    99        C      99 
(G  O E (U) UOp (Sht ) M
10        1   0  -90.7 S
...